Version 4
SHEET 1 904 680
WIRE -416 48 -512 48
WIRE -240 48 -336 48
WIRE -112 48 -240 48
WIRE -16 48 -112 48
WIRE 128 48 64 48
WIRE 272 48 192 48
WIRE 432 48 272 48
WIRE 560 48 432 48
WIRE -512 112 -512 48
WIRE 560 112 560 48
WIRE 432 128 432 48
WIRE -240 144 -240 48
WIRE -112 144 -112 48
WIRE 272 144 272 48
WIRE -512 176 -512 112
WIRE -512 288 -512 256
WIRE -240 288 -240 208
WIRE -240 288 -512 288
WIRE -112 288 -112 224
WIRE -112 288 -240 288
WIRE 32 288 -112 288
WIRE 272 288 272 208
WIRE 272 288 32 288
WIRE 432 288 432 208
WIRE 432 288 272 288
WIRE 560 288 560 192
WIRE 560 288 432 288
WIRE 32 352 32 288
FLAG 32 352 0
FLAG -512 112 Vin
FLAG 560 48 Vout
SYMBOL res 544 96 R0
SYMATTR InstName R1
SYMATTR Value 50
SYMATTR SpiceLine tol=1 pwr=0.1
SYMBOL res -320 32 R90
WINDOW 0 0 56 VBottom 2
WINDOW 3 32 56 VTop 2
SYMATTR InstName R2
SYMATTR Value 50
SYMATTR SpiceLine tol=1 pwr=0.1
SYMBOL cap -256 144 R0
SYMATTR InstName C1
SYMATTR Value 2400p
SYMATTR SpiceLine V=20
SYMBOL cap 256 144 R0
SYMATTR InstName C2
SYMATTR Value 2400p
SYMBOL ind -128 128 R0
SYMATTR InstName L1
SYMATTR Value 2.2n
SYMBOL ind 416 112 R0
SYMATTR InstName L2
SYMATTR Value 2.2n
SYMBOL ind -32 64 R270
WINDOW 0 32 56 VTop 2
WINDOW 3 5 56 VBottom 2
SYMATTR InstName L3
SYMATTR Value 2.2µ
SYMBOL cap 192 32 R90
WINDOW 0 0 32 VBottom 2
WINDOW 3 32 32 VTop 2
SYMATTR InstName C3
SYMATTR Value 2.4p
SYMBOL voltage -512 160 R0
WINDOW 123 24 124 Left 2
WINDOW 39 0 0 Left 0
SYMATTR Value2 AC 1
SYMATTR InstName V1
SYMATTR Value ""
TEXT -544 376 Left 2 !.ac dec 1000 60000k 80000k
